--------------TurbSim v2.00.* User Time Series Input File-----------------------
     Time series input from Experimental Data
--------------------------------------------------------------------------------
          3 nComp - Number of velocity components in the file
          1 nPoints - Number of time series points contained in this file (-)
          1 RefPtID - Index of the reference point (1-nPoints)
     Pointyi Pointzi ! nPoints listed in order of increasing height
       (m)     (m)
       0.0   119
--------Time Series-------------------------------------------------------------
Elapsed Time            Point01u                Point01v                Point01w
       (s)             (m/s)                   (m/s)                   (m/s)
0.00	14.15052	2.65728	1.27662
0.10	14.34741	3.11445	1.58065
0.20	14.30379	3.57977	1.74712
0.30	13.67535	3.10533	0.66540
0.40	13.71024	3.68169	0.57059
0.50	13.72312	2.90117	0.75210
0.60	13.29488	3.09850	0.25330
0.70	13.91958	2.87447	-0.17781
0.80	13.91917	2.33426	-0.08913
0.90	13.63132	2.11479	0.15195
1.00	13.54202	2.97802	1.00605
1.10	14.72995	3.71002	0.74319
1.20	14.41262	4.17566	0.97853
1.30	13.48927	3.84190	0.68321
1.40	13.44192	3.14832	1.45635
1.50	13.26415	3.14376	1.58085
1.60	13.55033	3.54134	1.25347
1.70	13.14784	4.79402	1.49713
1.80	12.54848	4.92297	2.04600
1.90	12.58129	3.82138	0.81068
2.00	12.65440	3.80510	1.43854
2.10	12.66395	4.26065	2.17090
2.20	12.20705	4.12910	1.84807
2.30	11.97113	3.28606	1.38470
2.40	12.00394	3.47948	0.88748
2.50	12.08203	3.44366	1.18181
2.60	12.50902	3.28638	1.24812
2.70	11.85940	3.40914	1.53097
2.80	12.37694	3.21605	1.39796
2.90	12.29137	2.76603	1.26554
3.00	12.46250	2.50423	1.72990
3.10	12.15596	3.14636	1.20477
3.20	12.50694	3.84971	1.27049
3.30	12.75657	3.78849	0.96982
3.40	13.33226	4.24730	1.07196
3.50	13.53288	4.10207	0.80435
3.60	13.49135	3.97898	1.22061
3.70	13.03487	4.29484	0.78555
3.80	13.08637	4.30851	0.06051
3.90	12.93601	4.42313	0.75942
4.00	13.19229	3.04672	1.03435
4.10	13.16238	3.08840	1.46229
4.20	13.79664	3.51725	1.65191
4.30	14.56713	3.55470	1.71485
4.40	14.57378	4.26814	2.44801
4.50	13.67037	4.07993	1.84411
4.60	13.53413	4.24176	1.41973
4.70	13.25999	3.71067	1.02940
4.80	13.34348	3.77351	1.50465
4.90	14.17212	3.51595	0.99694
5.00	14.51729	3.09231	0.87046
5.10	14.47575	2.01743	0.95617
5.20	14.28967	2.42413	1.44289
5.30	13.42655	2.89303	1.87716
5.40	13.21804	2.32872	1.52583
5.50	12.87952	2.43781	0.64066
5.60	12.62823	2.38831	0.15393
5.70	13.34763	2.27858	-0.16930
5.80	12.69510	2.80674	0.08347
5.90	12.74370	2.40459	-0.26688
6.00	12.93767	1.58467	-1.13799
6.10	13.09634	1.31896	-0.82763
6.20	13.08056	1.03469	-0.50183
6.30	13.16529	0.38703	-0.19918
6.40	13.25127	0.67781	0.05536
6.50	12.92064	0.16821	-0.22927
6.60	12.97215	0.32223	-0.50400
6.70	13.33476	0.84746	0.20876
6.80	13.65583	0.33265	0.64956
6.90	13.43403	0.02526	0.94073
7.00	13.30319	0.75661	0.53951
7.10	13.95530	1.55537	1.02861
7.20	13.17110	0.73317	1.05573
7.30	13.43444	1.40656	0.73507
7.40	13.41492	1.38474	0.99971
7.50	13.52998	1.08354	0.82236
7.60	13.61845	0.47071	1.58026
7.70	13.05480	0.34795	1.62182
7.80	12.95013	0.72047	0.88828
7.90	13.97400	1.32417	1.40014
8.00	14.39102	1.52997	0.71568
8.10	14.02758	1.78981	0.21094
8.20	13.84565	0.50686	-0.30884
8.30	13.46975	0.31637	-0.41731
8.40	13.40495	1.13368	-0.88345
8.50	13.91792	1.98356	0.28893
8.60	14.26018	2.14963	0.42372
8.70	13.34680	1.78949	-0.09151
8.80	13.53081	2.79013	0.21589
8.90	13.97275	2.02947	0.61314
9.00	14.67803	1.29031	0.30714
9.10	14.66516	1.03339	0.24360
9.20	14.33494	1.93993	-0.63939
9.30	13.92498	2.47753	-0.54339
9.40	13.51045	1.90085	-1.02279
9.50	13.52375	2.49153	-0.64038
9.60	13.30111	2.93666	-0.73104
9.70	13.06934	2.50358	-0.91096
9.80	12.71836	3.78849	-1.06891
9.90	13.03902	3.10761	-0.53132
10.00	12.94889	2.53680	-0.40345
10.10	12.25440	2.44530	-0.37000
10.20	12.15513	3.24405	-0.11546
10.30	12.36946	3.30103	-0.31339
10.40	13.24878	3.65629	-1.10118
10.50	13.13954	2.81944	-0.51153
10.60	12.80185	3.17599	-0.95748
10.70	13.10506	3.11901	-0.45195
10.80	12.17216	3.36779	-1.04615
10.90	11.45525	3.71620	-0.55824
11.00	10.74000	3.89172	-1.06159
11.10	10.14105	3.58921	-1.95388
11.20	10.70220	3.94512	-1.82127
11.30	11.37550	4.24925	-0.97470
11.40	11.27000	3.96889	-0.20037
11.50	11.26792	3.79598	-0.89394
11.60	11.07312	4.20366	-1.49824
11.70	10.68933	3.99429	-3.20108
11.80	11.47228	3.54297	-3.39446
11.90	11.67955	4.16784	-2.13955
12.00	11.79792	3.70546	-2.00733
12.10	11.57155	3.33816	-1.58077
12.20	11.51631	2.96532	-2.13143
12.30	11.75846	3.91972	-1.92795
12.40	11.37010	4.68233	-1.62749
12.50	11.12712	3.64978	-1.32603
12.60	11.52835	3.81780	-0.85989
12.70	11.40624	3.50325	-0.72549
12.80	11.41995	3.45440	-0.34645
12.90	11.61724	3.94349	0.48686
13.00	12.11983	3.75821	-0.19206
13.10	11.48931	3.48534	-0.55428
13.20	12.06126	3.98126	-0.94956
13.30	12.06209	3.18381	-1.21400
13.40	11.97071	2.86568	-0.55349
13.50	11.58817	2.44530	0.30239
13.60	12.00145	2.47916	0.07892
13.70	12.05918	3.11087	0.06704
13.80	11.51382	2.95001	-0.80744
13.90	11.43324	2.37887	-1.49289
14.00	11.78795	2.19945	-1.57880
14.10	11.17530	2.46223	-0.68987
14.20	11.86064	2.87512	-0.10299
14.30	12.19168	2.77515	-0.64454
14.40	11.55577	2.79176	-0.18869
14.50	11.71651	2.45702	-0.20591
14.60	12.35451	2.58890	0.35642
14.70	12.37943	2.60518	0.18521
14.80	11.65961	2.34468	-0.21898
14.90	11.94039	1.13010	0.21648
15.00	12.14475	0.91812	-0.35060
15.10	12.25440	0.76540	0.18323
15.20	12.18504	0.27469	-0.14891
15.30	12.54391	0.02265	0.41501
15.40	12.44339	-0.59310	1.16974
15.50	12.49116	-0.60710	0.99635
15.60	12.57922	-0.85979	1.20854
15.70	12.39023	0.22975	2.05590
15.80	12.71047	1.30626	1.56937
15.90	12.37320	0.52477	1.03277
16.00	12.59874	0.70516	0.34257
16.10	12.57132	1.18676	0.18778
16.20	12.42013	0.69246	0.44549
16.30	13.08803	0.74489	0.66738
16.40	13.66538	1.03079	0.40234
16.50	13.69903	0.28869	0.53278
16.60	13.83153	-0.13885	0.84513
16.70	13.77255	-0.18379	0.39106
16.80	13.53288	-0.31762	-0.02441
16.90	13.78459	-1.44623	0.67312
17.00	14.29881	-1.97440	0.74002
17.10	14.06704	-1.23979	-0.12436
17.20	13.51627	-1.75362	0.18659
17.30	13.89674	-1.92230	0.36929
17.40	14.30961	-1.72920	0.47479
17.50	14.11854	-1.81386	-0.25975
17.60	13.45895	-1.02846	-0.41196
17.70	13.88802	-1.04246	-0.21720
17.80	13.73890	-0.72400	0.10029
17.90	13.66829	-0.49151	0.29942
18.00	14.37482	-0.86793	-0.29637
18.10	14.20951	-0.77154	-1.14076
18.20	13.18190	-0.15025	-0.94124
18.30	12.58295	0.36814	-1.08613
18.40	13.22967	0.38800	-2.01227
18.50	13.41077	-0.27334	-3.14269
18.60	13.17526	-0.43875	-2.41408
18.70	13.19021	-0.98710	-1.84878
18.80	13.44649	-0.93142	-1.12097
18.90	13.63589	-1.22937	-1.46716
19.00	14.09071	-0.62013	-1.73338
19.10	14.07617	0.28283	-1.17758
19.20	13.96984	0.57459	-0.88939
19.30	14.09196	0.09527	-0.90245
19.40	14.63816	-0.13560	-0.63068
19.50	14.29507	-0.47620	-0.45254
19.60	13.81117	-1.34627	0.03418
19.70	14.31251	-1.01446	0.29665
19.80	14.06164	-1.36776	-0.22393
19.90	14.71085	-1.11345	-0.94342
20.00	14.18417	-1.14438	-1.35572
20.10	14.19829	-0.09131	-2.18072
20.20	13.84233	-0.50160	-1.31000
20.30	14.67097	0.10536	-0.72965
20.40	14.32705	-0.75070	-1.05308
20.50	15.18726	-1.58495	-0.43136
20.60	14.31459	-1.30361	-1.14710
20.70	14.88114	-0.24305	-0.52776
20.80	15.30398	-0.59310	-0.63444
20.90	14.54761	-0.30460	-1.30465
21.00	14.04378	-0.08155	-2.15855
21.10	13.98106	-0.32674	-2.43784
21.20	14.15634	-0.17532	-1.81117
21.30	14.14554	0.72242	-1.91667
21.40	14.05541	0.50523	-1.78544
21.50	14.14139	0.21607	-1.92558
21.60	13.74306	1.10307	-1.87214
21.70	13.56320	0.29488	-1.94715
21.80	13.85396	0.66837	-1.76149
21.90	13.59602	-0.00112	-1.60275
22.00	13.05480	-0.96822	-1.63461
22.10	12.76156	-0.86630	-1.42361
22.20	12.99956	-1.60416	-1.98536
22.30	13.01327	-1.70706	-0.80467
22.40	12.80849	-1.50875	-0.27183
22.50	12.60538	-1.08154	-0.40880
22.60	13.22427	-1.20039	-0.02480
22.70	12.53602	-0.81355	-0.25678
22.80	12.62989	-1.29612	-1.29199
22.90	13.08180	-1.10107	-0.84188
23.00	12.90610	-1.73181	-1.28941
23.10	12.40892	-1.65724	-1.06218
23.20	11.97362	-1.30589	-0.79101
23.30	12.90444	-1.64584	0.63492
23.40	12.20290	-1.48466	0.11573
23.50	11.52545	-2.36319	0.06645
23.60	11.02618	-1.68557	0.09891
23.70	10.52900	-2.16684	0.45895
23.80	11.29866	-1.90471	-0.02084
23.90	10.81850	-2.11962	0.27131
24.00	10.11571	-2.08999	0.93855
24.10	10.18549	-0.81876	0.26992
24.20	10.78320	-1.01967	-0.96559
24.30	10.50864	-2.49442	-0.52677
24.40	10.46919	-2.24043	-1.33019
24.50	10.92857	-2.76208	-0.44462
24.60	11.13169	-2.40292	-0.17088
24.70	11.06730	-1.77251	0.46628
24.80	11.13252	-1.00697	0.62383
24.90	11.16990	-0.96399	-0.02243
25.00	10.76741	-0.54067	0.00904
25.10	10.75246	0.79341	-0.56556
25.20	10.33295	1.16624	-0.75182
25.30	10.05964	0.57361	-1.87035
25.40	9.80544	0.95622	-1.28466
25.50	10.95765	0.92007	-0.63801
25.60	11.27332	-0.27855	-1.00458
25.70	11.85940	-0.36419	0.57474
25.80	11.31611	-0.13951	1.72158
25.90	11.80249	0.14444	1.89992
26.00	11.67041	-0.25445	0.60166
26.10	11.37882	-1.38892	0.45895
26.20	11.83655	-0.44331	0.21153
26.30	12.02845	-0.86174	0.10465
26.40	11.90135	-1.01120	0.46172
26.50	11.00417	-0.86890	-0.09942
26.60	11.20894	0.02070	-0.52598
26.70	11.79875	0.21640	-0.72253
26.80	12.51940	-0.32186	-0.49272
26.90	13.00662	-0.95617	-0.21858
27.00	12.95470	-0.19649	0.48290
27.10	12.78856	0.24636	0.79623
27.20	12.81556	0.74977	0.96507
27.30	12.85709	1.47819	0.75328
27.40	12.22118	0.98911	0.50745
27.50	13.08762	0.46420	0.49161
27.60	14.05624	0.49709	0.65016
27.70	14.66142	0.79471	0.88115
27.80	14.00722	0.99236	0.90035
27.90	13.60183	0.38866	0.42708
28.00	14.27181	0.57849	0.43837
28.10	14.46288	1.09070	1.00723
28.20	14.66100	0.18482	0.92984
28.30	14.44917	0.74782	0.00548
28.40	14.15759	0.07410	1.04266
28.50	13.57899	-0.40326	0.83503
28.60	13.78168	-0.53058	0.82315
28.70	13.50132	-0.11508	1.33581
28.80	13.00371	-0.34107	0.50824
28.90	12.85211	-0.66311	0.68757
29.00	13.03819	-1.89494	0.41026
29.10	13.61679	-0.97375	-0.80724
29.20	14.08614	-0.65041	-1.04120
29.30	14.50898	-0.69274	-1.13087
29.40	14.94345	-0.47164	-0.31893
29.50	14.72704	-0.08122	0.06348
29.60	14.08365	-0.56868	-0.10002
29.70	14.01304	-0.48532	-0.50321
29.80	14.36319	-1.17043	-0.56893
29.90	14.12311	-0.58105	-0.42899
30.00	14.92683	-0.14634	-0.26252
30.10	14.16091	-0.61882	0.03022
30.20	14.31044	-0.33716	-0.44621
30.30	14.61157	-0.14667	-1.50972
30.40	15.11167	-0.82885	-1.63145
30.50	15.08218	-0.75917	-1.20529
30.60	15.11582	-1.19029	-0.72371
30.70	15.16940	-1.75004	-0.22254
30.80	15.24375	-1.74223	-0.78567
30.90	15.60761	-2.27462	0.04230
31.00	14.86328	-1.32413	-0.19384
31.10	14.58001	-0.37819	0.01855
31.20	14.62362	0.32516	-1.04516
31.30	15.23794	0.11676	-1.47448
31.40	15.59099	0.16788	-0.61999
31.50	16.08777	0.00279	-0.44621
31.60	15.80283	0.61692	-0.61465
31.70	15.77832	0.47006	-0.36763
31.80	15.13950	1.59053	-0.20730
31.90	14.74864	1.24505	0.02943
32.00	15.36462	1.54234	0.27487
32.10	15.23005	2.15516	0.80475
32.20	14.77190	2.51009	1.16222
32.30	14.75986	1.97509	0.93420
32.40	13.98438	2.43650	-0.46917
32.50	14.05042	0.82955	-0.63583
32.60	15.25123	1.69669	0.63927
32.70	14.82632	1.73055	-0.03985
32.80	14.62694	1.61984	0.16898
32.90	14.53473	2.01710	0.10841
33.00	14.22612	1.04837	0.02151
33.10	13.98230	1.42837	0.36751
33.20	13.71066	1.46680	0.43837
33.30	14.23858	1.31245	0.49775
33.40	14.56838	1.95784	1.77503
33.50	15.23254	1.02427	1.65448
33.60	14.73286	1.35120	1.80571
33.70	14.25686	1.57718	1.63449
33.80	14.28302	1.68789	0.68242
33.90	13.62966	1.37139	1.28731
34.00	13.35012	0.48504	1.15272
34.10	13.14369	-0.25120	0.98507
34.20	13.82488	0.95459	1.30493
34.30	13.78875	0.85690	1.16440
34.40	13.32313	0.96827	0.85007
34.50	13.17443	1.21932	1.93813
34.60	14.26973	-0.53742	1.48208
34.70	14.06870	-0.02489	1.32334
34.80	14.18126	-0.19323	1.32235
34.90	14.49984	0.44564	1.90665
35.00	14.34907	-0.24175	1.21467
35.10	14.87367	0.45378	1.54859
35.20	14.75820	0.47560	1.08007
35.30	14.35987	-0.62599	1.95990
35.40	13.48678	-0.48304	2.04145
35.50	13.94907	-0.53546	2.59765
35.60	13.65043	-0.39382	2.56697
35.70	13.15657	-0.81029	2.41159
35.80	13.21015	-1.16652	1.77186
35.90	12.90818	-1.45437	1.63449
36.00	12.78690	-1.73962	1.68536
36.10	12.50071	-2.01966	1.33244
36.20	11.78754	-2.52112	0.41956
36.30	11.69201	-2.63509	0.09297
36.40	12.06708	-3.39542	0.55337
36.50	12.31795	-3.20818	1.52305
36.60	12.91940	-3.09552	0.86769
36.70	13.11254	-1.97668	0.76773
36.80	14.02176	-2.56736	0.99813
36.90	14.45083	-3.03919	0.52427
37.00	14.68011	-3.19744	1.23110
37.10	15.10045	-2.76208	0.69252
37.20	15.43814	-1.90536	-0.42740
37.30	14.97792	-1.82949	0.61888
37.40	15.68860	-2.22545	0.49062
37.50	15.64665	-2.12646	0.49854
37.60	15.70065	-2.53349	0.34138
37.70	16.07115	-3.33615	0.87897
37.80	15.25081	-3.57549	0.06506
37.90	14.73078	-2.50874	-0.05113
38.00	14.82092	-3.44426	-0.23382
38.10	14.77689	-2.94475	-0.51093
38.20	14.87242	-1.46024	-0.59703
38.30	15.32267	-0.68362	-0.13070
38.40	15.17730	-1.41856	0.19629
38.50	15.28820	-1.05907	0.05714
38.60	14.73286	-0.64780	0.42431
38.70	14.49860	-1.13103	0.22717
38.80	14.35530	-1.04507	0.31189
38.90	13.81242	-1.14666	0.31505
39.00	14.05333	-1.71520	-0.29241
39.10	14.41469	-1.06004	-0.42701
39.20	14.25312	-1.22579	0.25646
39.30	13.46020	-2.01119	0.94647
39.40	13.69280	-2.49832	1.52840
39.50	13.53994	-2.68458	2.24710
39.60	14.02301	-3.26321	2.36270
39.70	14.89194	-3.71388	2.03036
39.80	14.45748	-3.63768	1.56799
39.90	14.36028	-2.99164	1.57472
40.00	14.55301	-2.41659	1.89735
40.10	14.42757	-2.67449	1.26455
40.20	14.54512	-3.17888	2.51808
40.30	14.37191	-3.72886	2.95888
40.40	14.11771	-4.30098	2.42643
40.50	14.42425	-3.64680	1.79680
40.60	14.93846	-4.13361	1.98543
40.70	15.05019	-4.18734	2.28253
40.80	14.96338	-4.50775	2.19821
40.90	15.25995	-4.39150	2.15388
41.00	15.09630	-3.43091	1.62380
41.10	14.51687	-2.34398	1.53810
41.20	13.79747	-2.34430	1.34373
41.30	14.12311	-2.53870	1.89775
41.40	14.29549	-2.66081	1.64657
41.50	14.82590	-2.87768	1.13075
41.60	14.23858	-2.50484	0.70083
41.70	13.90546	-1.97570	0.57653
41.80	13.92914	-1.94509	1.22793
41.90	13.70900	-1.61491	0.69865
42.00	13.16903	-1.50420	-0.17523
42.10	13.83111	-1.65268	-0.33101
42.20	13.43070	-0.95943	-0.16692
42.30	12.80102	-0.41270	0.62462
42.40	13.50049	-0.92589	0.83543
42.50	13.13580	-1.22709	0.35504
42.60	12.59168	-1.61263	0.30971
42.70	12.92106	-1.97016	0.92351
42.80	12.43924	-2.10465	1.07414
42.90	13.48844	-1.46935	1.19745
43.00	13.08845	-1.42865	1.33680
43.10	13.13331	-1.07112	1.53335
43.20	12.30009	-0.26487	0.79604
43.30	11.96448	-0.44006	0.02092
43.40	12.79977	-0.33781	0.17472
43.50	12.58628	-0.65822	0.03794
43.60	12.33872	-1.06525	-0.37000
43.70	12.70632	-1.58788	0.50329
43.80	12.01017	-1.21309	0.25587
43.90	11.65712	-1.01185	0.36493
44.00	12.20498	-0.46806	1.16756
44.10	12.00477	-0.53416	1.12600
44.20	11.53085	-1.15578	0.70360
44.30	11.45940	-0.85620	0.22974
44.40	11.63759	-0.56738	-0.16692
44.50	12.50736	-0.54491	-0.00382
44.60	12.77984	-0.89430	0.85265
44.70	13.08097	-1.33748	0.97002
44.80	13.34929	-0.86239	0.40848
44.90	12.99416	-0.76601	-0.26826
45.00	12.62906	-0.53319	0.36889
45.10	12.68223	-0.50844	-0.46204
45.20	12.27850	-1.08870	0.20183
45.30	11.94247	-1.01967	0.49537
45.40	12.75574	-1.92458	1.30889
45.50	13.04940	-2.15219	0.81227
45.60	12.52439	-2.47423	0.67015
45.70	12.25316	-2.30946	0.83483
45.80	12.00311	-1.73734	0.66124
45.90	11.94122	-1.41432	0.93360
46.00	12.27766	-0.44852	1.01970
46.10	11.50302	-0.55077	0.85423
46.20	11.17322	-0.61557	0.29011
46.30	11.27125	0.12848	0.26003
46.40	11.44071	-0.85783	0.85700
46.50	11.36179	0.23757	1.98464
46.60	11.04321	0.70484	2.85655
46.70	10.69639	1.24895	3.02816
46.80	11.14498	0.74945	3.07606
46.90	11.09140	1.09558	2.66376
47.00	10.84384	2.21443	2.19188
47.10	10.93231	1.94090	2.58478
47.20	11.06897	2.25578	2.10103
47.30	11.30863	2.47949	2.15724
47.40	11.71859	2.17014	2.51788
47.50	11.56283	1.53453	2.91138
47.60	10.59338	1.05032	2.17129
47.70	10.34042	1.44596	0.85720
47.80	10.35911	0.67032	0.63808
47.90	10.60459	1.02004	0.51378
48.00	10.31799	1.45638	0.80514
48.10	10.55849	1.39972	1.09294
48.20	10.39857	1.34371	0.92667
48.30	9.80835	1.43261	0.62938
48.40	9.17991	1.25188	1.58085
48.50	9.25218	0.91356	1.78195
48.60	9.01210	1.44530	1.34947
48.70	9.17991	2.98062	1.97197
48.80	8.94772	2.70156	2.65881
48.90	9.34647	2.09037	2.67088
49.00	9.52715	2.36812	2.46068
49.10	9.74687	2.98062	2.70335
49.20	9.32321	3.89627	3.09684
49.30	8.75541	3.58335	2.48245
49.40	9.53421	3.05356	2.53470
49.50	9.62185	3.12748	2.66475
49.60	9.92382	2.72631	2.55588
49.70	9.58073	2.50879	2.41654
49.80	9.46152	2.11283	2.19287
49.90	9.96826	2.36487	1.94307
50.00	9.51386	1.71785	2.34706
50.10	9.31947	1.67454	2.08955
50.20	9.14875	1.21997	2.04917
50.30	8.79570	0.38279	1.50425
50.40	8.94024	0.62864	2.19247
50.50	8.72509	0.60552	2.60695
50.60	9.15914	0.28771	2.23622
50.70	8.83308	-0.05680	1.74316
50.80	8.49996	-0.20137	1.78413
50.90	8.77451	-0.01219	1.66438
51.00	9.85071	0.43294	1.61925
51.10	9.95165	0.17635	1.36194
51.20	10.12485	0.23887	1.70654
51.30	9.54335	0.21282	1.62380
51.40	9.15540	0.14151	1.39638
51.50	9.76930	-0.13658	2.01374
51.60	9.44740	-0.44201	1.39855
51.70	9.74397	0.05684	0.11672
51.80	9.53961	0.90672	-0.07132
51.90	8.97223	0.69474	0.70004
52.00	9.21023	-0.27106	0.49676
52.10	10.13357	-0.54523	0.77110
52.20	11.13376	-0.95584	0.51180
52.30	10.29349	-2.22871	0.76833
52.40	9.88851	-2.17335	0.55297
52.50	10.73958	-1.57062	0.92628
52.60	10.84592	-1.60416	0.37602
52.70	11.16616	-2.42083	0.30417
52.80	11.42285	-1.95225	-0.22294
52.90	10.93896	-1.48498	-0.10318
53.00	11.95451	-0.75298	0.05101
53.10	12.94806	-0.71228	-0.31399
53.20	12.55513	-0.63934	-0.83832
53.30	11.99231	-0.37396	-1.07822
53.40	11.73022	-0.75461	-0.16375
53.50	11.25422	-0.87444	-0.25381
53.60	11.10801	-1.05516	-1.22528
53.70	10.95599	-1.85261	-0.49846
53.80	10.58424	-2.01640	-0.51014
53.90	10.62453	-0.91058	-0.64533
54.00	10.06878	0.04870	-0.59783
54.10	11.19150	-0.26455	-0.73579
54.20	10.82515	-0.70023	0.54129
54.30	10.43222	-0.19323	1.57155
54.40	9.64137	-1.27300	1.03534
54.50	9.67419	-1.57681	0.41758
54.60	9.49517	-1.36711	0.35207
54.70	9.33110	-0.82885	-0.31438
54.80	8.95852	-1.00925	-0.50024
54.90	8.39778	-0.86695	-0.08735
55.00	8.62166	-1.15350	0.69529
55.10	9.03079	-1.24598	0.37344
55.20	9.51967	-1.00469	0.58563
55.30	10.43803	-0.92784	1.10739
55.40	10.49743	-0.86109	0.74121
55.50	10.28850	-0.01544	0.84809
55.60	10.90614	0.51337	1.59213
55.70	10.43637	0.47364	1.29088
55.80	10.18882	0.49579	1.27761
55.90	10.48788	0.85267	1.14183
56.00	10.35870	1.02753	1.99652
56.10	9.77055	0.11122	0.84414
56.20	9.02332	0.25417	0.30575
56.30	8.32219	0.43294	0.90945
56.40	8.75873	1.11870	0.33821
56.50	8.44389	0.51435	1.16420
56.60	7.27673	-0.01935	0.34930
56.70	7.20071	0.95557	0.16304
56.80	8.13735	0.49318	0.64996
56.90	8.29976	0.87546	0.97774
57.00	7.23934	0.58436	0.97180
57.10	8.16144	0.78689	0.90827
57.20	7.92884	0.74586	0.74794
57.30	7.90600	0.27469	0.43639
57.40	8.75167	-0.04475	0.46370
57.50	9.21937	-0.15025	0.50567
57.60	9.26173	-0.57259	0.76872
57.70	8.61086	-0.61264	-0.04440
57.80	8.41107	-0.80117	-0.46264
57.90	8.41357	-0.33944	-0.47629
58.00	9.30078	0.02428	0.12108
58.10	9.14169	-0.84188	0.70182
58.20	9.04865	-0.79401	1.08542
58.30	8.97389	-0.73540	0.63927
58.40	9.64802	-1.57779	1.08502
58.50	10.30096	-1.08544	0.77228
58.60	10.40314	-1.04767	0.65867
58.70	11.45234	-1.13754	0.69390
58.80	11.12172	-1.82200	0.81484
58.90	10.76409	-1.67059	-0.02421
59.00	10.13814	-2.96332	-0.49648
59.10	10.07169	-3.18213	-0.46798
59.20	10.48082	-3.16553	-0.32250
59.30	10.25154	-3.94930	-0.14535
59.40	10.28601	-3.03919	0.53516
59.50	10.70885	-2.81548	0.54308
59.60	10.84259	-2.83437	-0.25797
59.70	10.64696	-2.87865	0.06051
59.80	10.82100	-3.03919	0.73883
59.90	10.75454	-3.51850	-0.21937
60.00	11.08143	-2.83307	0.16066
60.10	10.98631	-3.33778	-0.09923
60.20	11.42618	-3.21730	-0.07013
60.30	10.72629	-3.10724	-0.38406
60.40	10.49660	-2.04441	-0.05429
60.50	11.00292	-1.78456	0.14641
60.60	10.78403	-1.13364	0.41679
60.70	11.39627	-1.03986	0.13315
60.80	11.22639	-0.91677	-0.77716
60.90	10.84841	-0.54100	-0.58437
61.00	9.92589	-0.14504	-0.49906
61.10	9.89723	-0.44820	0.40432
61.20	9.66754	-1.66440	-0.24748
61.30	10.30429	-1.63672	0.24637
61.40	10.67313	-1.67385	0.27942
61.50	10.07750	-2.01347	0.15195
61.60	10.43679	-2.07827	1.50880
61.70	10.20668	-2.76306	1.07275
61.80	10.05922	-2.13916	1.30493
61.90	10.17926	-2.16423	0.07377
62.00	11.33937	-1.64324	0.00924
62.10	10.72463	-0.77219	0.92925
62.20	9.84905	-1.16587	0.83721
62.30	9.28375	-0.05191	0.84849
62.40	9.08936	0.57589	0.89263
62.50	9.19486	0.73577	-0.29538
62.60	9.53670	0.91714	-0.16672
62.70	9.64636	1.08810	-0.20393
62.80	9.76473	0.39745	-0.90324
62.90	9.42663	-0.18184	-0.01352
63.00	10.01520	0.29292	-0.60000
63.10	10.44717	0.11871	0.33128
63.20	10.39234	0.26199	1.65330
63.30	10.22620	-0.42345	1.77661
63.40	10.55433	-0.05224	1.12204
63.50	10.03680	-0.79108	1.07592
63.60	9.65840	-1.23523	1.40509
63.70	9.82247	-0.72791	0.60780
63.80	9.58987	-0.55924	0.40907
63.90	9.87730	-1.16652	0.70380
64.00	10.04095	-0.75070	0.53951
64.10	9.74853	0.06661	1.08680
64.20	10.21415	-0.32641	1.07255
64.30	10.37864	-0.38959	0.98685
64.40	10.30636	-0.23752	0.09079
64.50	10.62453	-0.56803	0.30694
64.60	10.27604	-1.03595	0.13038
64.70	10.81393	-0.73149	0.87679
64.80	10.57053	-0.41661	0.96191
64.90	10.45174	-1.26910	0.24439
65.00	10.56638	-1.23360	-0.69897
65.10	10.30470	-1.37036	-0.47075
65.20	9.96909	0.55212	-0.90344
65.30	9.77346	0.30334	-1.17204
65.40	9.65965	0.62083	-1.24903
65.50	9.97034	0.87156	-0.97113
65.60	10.77572	0.64557	-0.34427
65.70	9.85944	0.98520	1.02347
65.80	10.53897	0.60845	1.06820
65.90	11.22763	1.17764	1.36985
66.00	12.46416	1.28868	2.34093
66.10	12.90694	0.52021	1.42666
66.20	12.03676	1.15745	1.24852
66.30	12.10612	0.71298	1.05355
66.40	13.15989	0.23431	1.12164
66.50	13.01493	0.72861	0.36196
66.60	12.58378	1.15908	0.79168
66.70	12.66686	1.22421	0.62067
66.80	12.44672	-0.11769	1.13629
66.90	12.92563	0.25645	1.63548
67.00	12.46333	1.40818	0.90371
67.10	12.50736	0.45085	1.08680
67.20	12.08244	0.85137	0.67114
67.30	11.92253	0.25743	0.46252
67.40	12.83176	0.94938	-0.12674
67.50	12.79437	1.12033	-0.05133
67.60	13.01285	0.87839	0.69845
67.70	13.22842	-0.51886	1.44705
67.80	13.54327	-0.28115	2.20732
67.90	14.11730	0.25450	1.51514
68.00	13.84980	0.64753	1.18637
68.10	13.53330	-0.10825	1.36530
68.20	13.62551	0.34177	1.00387
68.30	13.13414	0.31506	1.24911
68.40	12.92272	-0.46025	0.80989
68.50	13.31357	-1.56834	0.38948
68.60	13.17609	-0.99134	0.27942
68.70	13.83360	-0.68721	0.66322
68.80	14.48946	-0.06624	1.35600
68.90	14.00889	-0.04638	1.96465
69.00	14.19580	-0.72954	2.43772
69.10	14.08739	-0.85848	1.31562
69.20	13.88843	-0.94933	1.15390
69.30	14.40556	-0.52798	1.57056
69.40	13.02697	-0.12844	1.05692
69.50	12.27393	-0.39903	0.90352
69.60	12.31588	-0.73312	0.16363
69.70	12.57091	-0.91417	1.13174
69.80	12.91732	-1.57714	1.00565
69.90	13.32645	-1.06363	0.99615
70.00	13.01451	-0.42117	1.47535
70.10	13.84690	-0.71586	1.68022
70.20	14.44792	-0.27204	1.31799
70.30	14.91936	-1.02357	0.77981
70.40	14.81925	-1.74027	0.72636
70.50	15.21177	-0.74777	0.81167
70.60	14.48198	0.01419	0.10267
70.70	13.47058	0.24278	-0.05845
70.80	13.63299	-0.28994	0.54209
70.90	13.65625	-0.62566	0.90292
71.00	12.99915	-1.20560	0.40234
71.10	13.18357	-1.02162	0.24973
71.20	12.79811	-1.31077	0.37048
71.30	12.31962	-2.26974	0.24182
71.40	13.48096	-2.32053	0.01182
71.50	13.47307	-2.52958	1.49811
71.60	12.94556	-2.82427	2.19841
71.70	13.27494	-3.06133	1.59471
71.80	13.05813	-3.07468	2.02997
71.90	13.73475	-3.67090	1.81818
72.00	14.41345	-3.81515	2.38863
72.10	14.18168	-3.83631	2.84586
72.20	14.35322	-3.77672	2.99669
72.30	14.10774	-3.36155	3.40780
72.40	13.69903	-3.34918	2.50303
72.50	13.85894	-3.93335	1.87281
72.60	13.47224	-4.62823	1.31799
72.70	13.01285	-4.46542	2.00820
72.80	13.00745	-4.02811	1.57432
72.90	12.91234	-3.98284	0.35484
73.00	12.28514	-3.99912	1.37005
73.10	12.71712	-4.65949	1.61985
73.20	14.18625	-4.37978	1.63667
73.30	13.46518	-4.36643	1.20279
73.40	13.35137	-3.43449	0.66263
73.50	14.00432	-2.26518	0.52665
73.60	14.04710	-2.83990	0.99100
73.70	13.75676	-3.11147	1.01575
73.80	13.74721	-3.67122	0.75685
73.90	13.02573	-2.99913	0.31565
74.00	12.85211	-3.20623	1.14975
74.10	12.67973	-3.39379	1.34373
74.20	12.94141	-3.08477	1.07394
74.30	12.59209	-3.69271	0.95676
74.40	11.99647	-3.15120	0.84433
74.50	11.70322	-1.99035	0.90114
74.60	11.99563	-2.42766	1.11155
74.70	11.95161	-2.32184	1.42052
74.80	12.03800	-1.34008	1.83698
74.90	12.22408	-1.73148	1.26970
75.00	12.99707	-2.14079	1.93397
75.10	13.23507	-2.53773	1.48089
75.20	13.12209	-1.36157	0.97081
75.30	12.27850	-1.94574	0.19827
75.40	11.95410	-2.13167	-0.03589
75.50	12.38150	-2.32444	0.80950
75.60	12.30715	-1.76144	0.80336
75.70	12.06375	-1.03530	0.44747
75.80	11.63510	-1.03888	1.49693
75.90	12.28016	-0.19616	0.31505
76.00	12.33374	-1.13429	0.35523
76.10	11.34061	-1.63965	0.69074
76.20	11.76553	-0.82853	1.40667
76.30	12.15015	-1.05386	2.01156
76.40	11.19399	-2.05938	1.63093
76.50	10.27563	-0.91579	2.46226
76.60	10.91487	-1.77674	1.64142
76.70	10.86419	-2.30458	1.20972
76.80	11.35266	-1.35571	1.48347
76.90	10.72588	-0.96952	2.51867
77.00	10.23451	-1.10107	2.14240
77.10	10.35372	-0.25868	1.77344
77.20	10.31841	1.11936	0.82711
77.30	10.81103	0.67162	1.04781
77.40	11.24176	1.54299	0.82810
77.50	11.20022	1.71622	0.63116
77.60	11.10136	0.57784	0.55792
77.70	10.68143	0.91584	0.67668
77.80	10.56472	0.82336	-0.13228
77.90	10.38861	0.59217	-0.26074
78.00	10.42391	0.50686	-0.48322
78.10	10.65028	-0.27855	0.10267
78.20	10.02267	-0.99883	0.17135
78.30	10.09578	-1.42344	0.10485
78.40	10.55932	-0.93045	-0.39692
78.50	10.44219	-0.42378	-0.52499
78.60	10.14770	-0.57324	-0.03727
78.70	10.76824	-0.72823	-0.06736
78.80	10.55849	-0.06852	0.78871
78.90	10.38321	0.56449	0.16304
79.00	9.48727	-0.33228	-0.07310
79.10	9.83742	-0.66441	0.74160
79.20	9.10473	-1.07567	-0.06003
79.30	9.45986	-0.74940	0.79663
79.40	8.92986	-1.64454	1.66557
79.50	9.56204	-2.26843	1.73306
79.60	9.31988	-2.65300	1.70852
79.70	8.73132	-2.82916	1.82194
79.80	9.68000	-1.45242	1.77206
79.90	10.19339	-1.55890	1.58936
80.00	9.57325	-1.76632	2.06104
80.10	9.32694	-1.78163	2.26234
80.20	9.07607	-1.90960	1.78552
80.30	9.23972	-2.72235	2.04422
80.40	9.60025	-2.58038	1.60302
80.50	10.04635	-2.43483	0.35880
80.60	10.57676	-1.63835	0.64343
80.70	10.11904	-2.45209	0.86512
80.80	10.13565	-2.03268	0.65234
80.90	10.76866	-2.11213	1.38252
81.00	10.68559	-1.84024	0.78099
81.10	11.13210	-2.36287	0.70439
81.20	11.36761	-1.62370	1.38015
81.30	11.16741	-1.72334	0.98606
81.40	10.20875	-1.88908	-0.00441
81.50	9.47274	-2.16456	-0.61465
81.60	10.04884	-2.34430	0.24419
81.70	9.52673	-2.74645	0.51517
81.80	10.19837	-1.81907	0.19550
81.90	10.38653	-1.82266	0.62265
82.00	10.70386	-1.43256	0.57395
82.10	10.08082	-1.33585	0.52269
82.20	10.04136	-2.05613	1.11095
82.30	9.93960	-2.14339	1.00130
82.40	8.95727	-2.26778	1.43200
82.50	9.80918	-2.74775	1.77562
82.60	9.78882	-1.93532	2.35597
82.70	10.20626	-1.52210	2.94918
82.80	10.91321	-0.57780	1.76315
82.90	10.89742	-1.06688	1.05632
83.00	10.38944	-0.59375	1.23961
83.10	10.94934	-1.35701	0.95142
83.20	11.21642	-1.33780	1.04623
83.30	11.01954	-1.04018	1.77443
83.40	11.79668	-0.77903	1.12184
83.50	12.46873	-1.19388	1.75444
83.60	12.36987	-1.15382	1.93615
83.70	11.54497	-1.68394	0.98388
83.80	10.56721	-1.43777	1.03831
83.90	10.70636	-0.78782	1.70278
84.00	10.40854	-1.86336	1.54463
84.10	9.95248	-0.92524	1.38331
84.20	9.85944	-0.67548	0.96072
84.30	9.99069	-0.31599	0.94548
84.40	9.30078	-0.58822	0.33920
84.50	9.80627	1.01874	-0.32250
84.60	9.36599	1.64198	-0.70154
84.70	9.72860	0.89337	-0.94382
84.80	9.72901	0.67553	-0.49391
84.90	10.06587	1.02623	-0.76053
85.00	10.00772	0.73121	0.40155
85.10	10.52817	0.39061	0.01756
85.20	9.95040	-0.35800	-0.29023
85.30	8.75416	-0.67190	-0.11843
85.40	8.41730	-1.21113	0.56049
85.50	8.36455	-1.41009	1.26495
85.60	8.54274	-0.77252	0.91816
85.70	8.51990	-0.04866	0.77961
85.80	8.05470	-0.40880	0.41066
85.90	9.11553	-1.31761	0.32792
86.00	9.35602	0.03796	1.45477
86.10	10.13067	0.96078	1.15826
86.20	9.61728	0.79015	0.78020
86.30	9.49392	0.31800	0.50151
86.40	8.98718	0.69963	0.12602
86.50	9.12508	0.45899	0.46034
86.60	9.15415	1.10145	0.54703
86.70	9.40296	0.29976	-1.07307
86.80	9.61396	0.02656	-1.14057
86.90	10.06172	0.99366	-0.12674
87.00	10.21665	0.65957	-0.16375
87.10	10.70677	0.48895	-0.65107
87.20	10.81933	0.71851	-1.21341
87.30	10.61955	0.08517	0.57019
87.40	10.98631	0.16235	0.50012
87.50	11.49014	0.31246	-0.12595
87.60	11.19025	0.73349	-0.34665
87.70	11.10136	0.22519	-0.75340
87.80	10.24987	-0.09490	0.13691
87.90	9.85944	0.94808	0.39542
88.00	10.74498	1.19034	0.38849
88.10	11.26502	0.34242	0.97853
88.20	10.71300	0.61562	1.29107
88.30	10.24032	0.89012	1.30295
88.40	10.27770	1.02981	0.89599
88.50	10.75121	1.77712	0.95221
88.60	10.47458	1.42805	0.95201
88.70	10.71009	0.54268	0.78040
88.80	11.20271	-0.21082	1.06800
88.90	11.16242	-0.30036	1.65330
89.00	10.44842	1.56090	1.75662
89.10	10.30304	1.48959	0.81187
89.20	10.39816	0.72633	0.89639
89.30	10.12153	0.24050	1.64340
89.40	10.73335	0.60292	2.19623
89.50	10.26690	-0.03368	2.01789
89.60	9.33650	-0.55272	1.87360