--------------TurbSim v2.00.* User Time Series Input File-----------------------
     Time series input from Experimental Data
--------------------------------------------------------------------------------
          3 nComp - Number of velocity components in the file
          1 nPoints - Number of time series points contained in this file (-)
          1 RefPtID - Index of the reference point (1-nPoints)
     Pointyi Pointzi ! nPoints listed in order of increasing height
       (m)     (m)
       0.0   119
--------Time Series-------------------------------------------------------------
Elapsed Time            Point01u                Point01v                Point01w
       (s)             (m/s)                   (m/s)                   (m/s)
0.00	11.38173	0.93375	-1.19440
0.10	11.83780	0.71786	-1.08950
0.20	11.21974	0.33069	-2.23218
0.30	11.00915	0.29911	-0.90166
0.40	11.36927	0.59543	-0.71105
0.50	11.21393	0.14541	-1.11206
0.60	11.70364	-0.74745	-0.99667
0.70	11.28994	-1.41042	-0.18137
0.80	10.44343	-2.17335	-1.15125
0.90	11.34809	-1.47456	-1.72863
1.00	12.00851	-0.23296	-0.86623
1.10	11.26128	-0.89398	-1.40758
1.20	11.01248	-0.39447	-1.67638
1.30	11.73977	-0.68460	-1.86739
1.40	11.62679	-1.06981	-1.93251
1.50	11.13875	-1.48987	-2.38499
1.60	11.56491	-1.63575	-2.53641
1.70	11.55286	-1.72334	-2.20685
1.80	10.68642	-2.27202	-1.54158
1.90	11.50260	-1.98677	-0.94580
2.00	11.80789	-1.44916	-1.01408
2.10	11.63552	-0.93501	-1.01211
2.20	11.47187	-0.96366	-0.84624
2.30	10.73543	-0.77936	-0.90938
2.40	10.42100	-1.57583	-0.80962
2.50	10.95557	-2.25997	-0.32309
2.60	10.85298	-2.82167	-0.75796
2.70	10.65693	-3.37393	-0.72074
2.80	11.04778	-2.48432	-0.30963
2.90	10.34582	-0.89691	-0.69521
3.00	10.36825	-0.89593	-0.91195
3.10	10.37905	-0.94445	-1.15323
3.20	10.87167	-1.87410	-1.08871
3.30	10.38154	-1.27007	-1.32049
3.40	10.39940	-1.83633	-0.36763
3.50	10.41976	-1.22579	-0.18751
3.60	9.93628	-1.10531	-0.88622
3.70	9.92132	-1.27821	-0.09645
3.80	9.95995	-0.89170	-0.37594
3.90	10.43263	-1.04995	-0.93768
4.00	10.60875	-1.56737	-1.18589
4.10	11.06232	-1.56802	-1.00696
4.20	10.32755	-1.34724	-1.68687
4.30	10.68185	-1.40716	-1.98456
4.40	11.22265	-2.09195	-2.27889
4.50	10.48538	-1.68687	-2.42794
4.60	11.20437	-2.37524	-2.39251
4.70	11.32441	-2.29514	-2.58530
4.80	11.73022	-3.01900	-3.11557
4.90	12.18712	-3.69532	-2.23931
5.00	12.12730	-3.52827	-2.23396
5.10	11.61309	-3.73309	-2.59816
5.20	10.95682	-3.77998	-2.43645
5.30	10.77489	-3.74481	-2.60173
5.40	10.37407	-3.22577	-2.61538
5.50	9.95123	-2.87442	-1.88381
5.60	9.80378	-3.98447	-0.97430
5.70	10.30304	-3.35439	-1.02279
5.80	10.52567	-3.72332	-1.24310
5.90	11.05069	-3.22154	-0.85039
6.00	11.12545	-3.40160	-1.72408
6.10	11.26252	-2.24499	-2.20249
6.20	10.53024	-2.62467	-2.60430
6.30	10.58632	-2.94964	-2.57501
6.40	11.04114	-3.00434	-2.80204
6.50	10.83636	-2.50874	-2.95069
6.60	11.32026	-1.87378	-3.08627
6.70	11.13002	-1.04930	-3.06767
6.80	11.30780	-1.33715	-2.33788
6.90	11.04778	-1.57746	-1.58691
7.00	10.84176	-1.60905	-2.26662
7.10	11.00417	-0.99231	-2.00673
7.20	11.14498	-0.84969	-1.74645
7.30	10.37282	-0.14504	-1.32089
7.40	10.42433	0.20793	-1.41550
7.50	10.58839	-0.50811	-2.20546
7.60	11.77508	-0.45666	-1.77396
7.70	11.70488	-0.83992	-2.03306
7.80	11.84901	-0.07015	-1.68944
7.90	11.41247	0.02493	-0.89948
8.00	10.54810	-0.41075	-0.14930
8.10	10.24281	-0.64813	-0.28667
8.20	10.43056	-0.14211	-0.48560
8.30	10.16390	-0.04703	-1.72428
8.40	9.83202	-0.35605	-1.78841
8.50	10.19422	-0.55370	-1.53149
8.60	9.75892	-0.93696	-2.12074
8.70	9.76723	-1.72855	-2.96197
8.80	8.83100	-1.41302	-2.49326
8.90	8.95644	-0.64585	-2.19457
9.00	8.90992	0.16235	-2.25673
9.10	10.01353	-0.58431	-1.73992
9.20	9.94334	-0.10011	-1.87708
9.30	9.47315	-0.03270	-1.67875
9.40	9.07233	1.16397	-0.52637
9.50	9.94043	0.84388	-0.86167
9.60	9.97200	-0.33488	-1.85591
9.70	9.22352	-0.14081	-1.95962
9.80	9.40835	-0.74321	-2.32343
9.90	8.84388	-0.41043	-1.79930
10.00	8.47255	-0.05973	-1.92578
10.10	8.73838	-0.25120	-1.44558
10.20	9.07025	-1.18313	-1.34662
10.30	9.86650	-1.02032	-1.42579
10.40	10.30096	-1.40944	-1.14571
10.50	10.75329	-2.12711	-2.11065
10.60	10.36285	-1.82591	-2.49504
10.70	11.29866	-2.08771	-2.49999
10.80	11.59897	-1.70250	-1.63719
10.90	11.20354	-1.65431	-2.29156
11.00	11.13169	-2.40748	-1.59681
11.10	11.54580	-2.52535	-1.56573
11.20	12.32294	-1.71943	-2.03880
11.30	13.02033	-0.62924	-1.46874
11.40	11.96781	0.81653	-0.98360
11.50	12.16053	0.28348	-0.41889
11.60	12.46416	-0.42866	-0.03015
11.70	12.18587	-0.31176	-0.07745
11.80	12.19916	0.05066	-0.70926
11.90	12.54308	0.18742	-0.04222
12.00	12.02928	-0.37949	0.38948
12.10	12.28431	-0.10727	0.72201
12.20	12.47455	0.28901	-0.59862
12.30	13.20724	0.30985	-0.81437
12.40	12.79562	-0.21538	-0.83396
12.50	12.89447	-0.32544	-0.47827
12.60	13.31025	1.13857	-0.55567
12.70	12.83425	0.91030	-0.61445
12.80	11.79460	1.02004	-1.46102
12.90	11.80498	1.26784	-2.08175
13.00	12.16219	2.10339	-2.09798
13.10	11.82243	2.11544	-2.14667
13.20	11.79418	2.28965	-1.74110
13.30	11.68370	2.75692	-1.28348
13.40	11.17654	2.36389	-0.95035
13.50	10.60501	3.12455	-0.86227
13.60	10.51114	2.54559	-0.35476
13.70	10.25777	1.86080	-0.02777
13.80	10.95142	1.73771	0.09218
13.90	11.02120	1.68268	0.70617
14.00	10.56306	0.99106	0.14701
14.10	9.76889	-0.02130	0.12642
14.20	10.10699	-0.14830	0.35919
14.30	10.81393	1.02460	-0.41276
14.40	10.06629	0.12067	-1.38284
14.50	9.86276	1.02102	-1.90598
14.60	10.49618	1.06726	-1.17699
14.70	10.65900	0.88816	-0.86504
14.80	10.38985	1.07247	-0.89453
14.90	9.74355	0.16756	-0.79576
15.00	9.03328	-0.58008	-2.21437
15.10	8.71180	0.35316	-2.20645
15.20	9.05405	0.74586	-1.67024
15.30	9.39672	0.29553	-1.49447
15.40	9.81458	-0.18933	-1.93211
15.50	10.51487	-1.50257	-0.89829
15.60	10.18009	-0.82429	-0.02599
15.70	10.29515	-1.05028	-0.33200
15.80	9.90056	-1.43940	-0.66156
15.90	10.43679	-1.60221	-1.66193
16.00	9.87605	-0.58496	-0.93036
16.10	9.70243	0.03926	-0.38208
16.20	9.34273	-0.10206	-0.14436
16.30	8.46673	-0.13202	0.73290
16.40	8.37618	-1.23784	0.42491
16.50	8.28979	-1.20332	-0.18909
16.60	7.77225	-1.15220	-0.82723
16.70	8.69518	-0.84188	-0.38465
16.80	9.24013	-0.58040	-0.88859
16.90	9.67543	-1.07502	-0.92600
17.00	9.95497	-0.59343	0.20876
17.10	10.36825	-0.84057	-0.25540
17.20	10.83886	0.02624	-0.07171
17.30	11.41371	0.70386	0.57633
17.40	11.62846	0.40526	0.60542
17.50	11.12961	0.07117	0.41719
17.60	11.32192	-0.09164	-1.15878
17.70	11.22223	0.19133	-2.41725
17.80	11.36470	-1.32217	-2.26128
17.90	11.34684	-1.58072	-3.26778
18.00	9.95206	-0.95584	-1.86640
18.10	9.53089	-0.01186	-1.57345
18.20	9.20815	-0.69079	-1.85630
18.30	9.69994	-1.57746	-2.30700
18.40	9.94251	-1.60937	-1.53842
18.50	10.07002	-1.76860	-1.49566
18.60	9.66837	-1.31859	-1.22390
18.70	9.48520	-1.80409	-1.50793
18.80	9.39922	-0.80182	-2.26979
18.90	8.76081	-1.25184	-2.56610
19.00	8.63828	-0.41075	-2.28602
19.10	8.87711	0.18156	-2.36856
19.20	9.75560	-0.47001	-3.06707
19.30	9.99027	-0.71391	-1.83314
19.40	9.67875	-0.98645	-2.01623
19.50	9.49267	-0.78033	-1.68093
19.60	9.17118	-1.22351	-2.10966
19.70	9.09310	-1.70966	-2.33966
19.80	9.83701	-2.20657	-2.10154
19.90	10.27272	-1.82331	-1.07564
20.00	9.68000	-1.83861	-1.90480
20.10	9.22850	-1.88387	-1.24824
20.20	9.89599	-1.41595	-0.83416
20.30	10.32215	-0.86109	0.08208
20.40	9.78093	-1.13787	-0.15049
20.50	10.11073	-1.03269	0.57969
20.60	10.23368	-0.01284	0.11514
20.70	10.69680	0.41112	-0.02223
20.80	10.42017	0.91845	-0.48817
20.90	10.72795	1.67487	-0.77676
21.00	10.53024	1.73771	-0.34486
21.10	9.91136	2.08190	-0.22195
21.20	10.13524	2.08385	0.62007
21.30	10.40730	1.51564	0.43480
21.40	9.54169	1.26002	0.89085
21.50	10.04178	1.02590	0.95142
21.60	10.71716	1.03534	0.96527
21.70	10.88662	0.28901	0.64660
21.80	11.37384	0.64720	0.62265
21.90	11.44528	-0.10499	1.12322
22.00	10.90614	0.04219	1.63311
22.10	10.44385	-0.22449	1.37916
22.20	10.30636	0.43978	1.42468
22.30	11.65670	0.59933	0.73705
22.40	11.88100	-0.90863	0.77525
22.50	11.16242	-1.57583	1.48347
22.60	11.22140	-0.28994	1.16360
22.70	11.13501	-0.16523	1.00090
22.80	11.29534	0.25613	1.24496
22.90	10.94477	0.50816	1.81739
23.00	11.11258	0.41210	1.03732
23.10	10.80397	0.59478	0.43579
23.20	10.69722	1.26035	0.82632
23.30	10.65485	0.73838	0.65827
23.40	10.76824	0.64720	0.85740
23.50	10.90656	-0.11476	1.12560
23.60	10.37116	-0.81973	0.99001
23.70	10.70137	-0.38926	0.43441
23.80	10.35911	0.36814	0.30357
23.90	10.78777	0.33069	0.23053
24.00	10.34998	0.31572	0.69608
24.10	10.25901	0.28739	0.37542
24.20	10.75288	0.17765	-0.52598
24.30	11.15993	1.25123	-0.39910
24.40	10.84010	1.65240	0.01696
24.50	10.90074	0.50295	-1.02319
24.60	10.82058	0.50881	-0.43176
24.70	11.17945	0.06108	0.64719
24.80	11.84361	0.22943	0.67925
24.90	11.49222	-0.68493	-0.44819
25.00	11.25255	-0.17044	0.32614
25.10	10.86212	0.60292	0.26913
25.20	10.84633	1.10340	0.58326
25.30	10.85422	1.26556	0.29684
25.40	10.85672	1.73250	-0.48758
25.50	10.88911	2.21964	0.03854
25.60	11.65255	1.54722	-0.52578
25.70	11.94288	1.72860	-0.11447
25.80	11.59855	2.07832	-0.11981
25.90	11.35723	2.89791	-0.68175
26.00	11.85940	2.09623	-0.80210
26.10	12.26230	1.02037	-0.49490
26.20	12.51400	0.62115	-1.59324
26.30	12.52439	0.32711	-2.04177
26.40	13.02407	0.04056	-0.84030
26.50	13.40703	-0.75787	-0.04519
26.60	14.28718	-1.09814	-0.55507
26.70	13.74098	-0.62566	-0.69838
26.80	13.81741	-0.62469	-0.93847
26.90	14.26392	-0.92133	-0.11407
27.00	14.41096	-1.07340	0.26399
27.10	14.33328	0.07182	0.66243
27.20	14.37856	-0.66930	0.85126
27.30	15.25164	-0.36321	0.46370
27.40	14.40099	0.17114	0.05952
27.50	13.59270	-0.62599	0.33702
27.60	13.28284	0.07345	0.20797
27.70	13.56653	-0.93012	-0.33813
27.80	13.59726	-0.72107	-1.20034
27.90	13.51918	0.31376	-0.90601
28.00	13.90048	-0.65529	-0.14831
28.10	14.49070	-0.60873	0.70736
28.20	14.51563	0.61138	-0.24629
28.30	14.47907	1.14280	-1.08099
28.40	14.43172	1.46517	-1.51011
28.50	13.86351	2.12618	-1.73655
28.60	14.07368	1.60356	-1.39551
28.70	14.18375	0.85006	-1.43114
28.80	14.02093	-0.30102	-1.16115
28.90	13.33143	0.28543	-1.33573
29.00	12.42179	-0.10466	-0.32270
29.10	12.27891	0.66088	-0.74865
29.20	11.66376	0.35772	-1.79276
29.30	11.96365	0.18156	-1.61937
29.40	11.83614	-1.14992	-1.38818
29.50	11.81412	-1.16066	-0.54854
29.60	12.38483	-0.52049	-0.59367
29.70	12.46458	-0.23850	-1.25992
29.80	12.08660	-0.10011	-1.44361
29.90	12.69178	0.08517	-1.65936
30.00	13.03944	-0.37819	-1.20945
30.10	12.73290	-0.60938	-1.26546
30.20	13.02490	-0.91482	-0.65958
30.30	12.97630	-0.55500	-0.78428
30.40	13.83859	-1.45340	-0.56319
30.50	13.24753	-2.51656	-0.08933
30.60	13.05522	-1.70315	0.29566
30.70	13.68574	-0.57324	0.10781
30.80	13.66123	-0.09522	0.16977
30.90	13.49093	-0.19616	0.94488
31.00	13.08803	0.45378	0.98665
31.10	12.55097	0.91877	0.91223
31.20	12.03468	1.19132	0.54308
31.30	11.84818	0.96143	1.12322
31.40	11.90799	0.15030	1.47179
31.50	12.36198	0.41243	0.67846
31.60	12.47828	-0.45471	1.04405
31.70	12.08784	-0.74321	0.26913
31.80	12.84006	-0.70251	0.24776
31.90	13.54576	0.00409	0.17432
32.00	13.19395	-0.61589	0.23825
32.10	11.85732	-0.92914	-0.23699
32.20	11.66542	-1.15610	-0.33180
32.30	11.70073	-0.64650	0.79485
32.40	12.30757	-1.10140	1.00189
32.50	11.62638	-0.77317	0.51675
32.60	12.85585	-0.77415	1.30493
32.70	12.50611	-1.28928	1.47654
32.80	12.11360	-0.23068	1.78532
32.90	12.47205	-0.61459	1.51731
33.00	13.36300	-1.21406	1.53889
33.10	12.44962	-2.12744	1.55591
33.20	11.59024	-1.59993	1.68477
33.30	11.38838	-1.62077	1.20774
33.40	11.40333	-1.13005	1.34947
33.50	11.70654	-1.21406	1.09037
33.60	11.38256	-1.38892	1.29246
33.70	11.44279	-1.64812	1.14638
33.80	11.02369	-1.06330	0.88273
33.90	10.43263	-0.31078	0.87224
34.00	11.06938	0.08355	0.98289
34.10	10.37241	0.46485	1.56759
34.20	9.86733	0.31116	2.22573
34.30	10.26690	0.03894	2.23760
34.40	10.78071	-0.25152	1.25881
34.50	10.60335	0.66316	1.50643
34.60	10.44011	0.27762	1.13193
34.70	10.94602	0.08843	0.93657
34.80	11.11009	0.85820	1.30394
34.90	11.95950	1.05716	1.09769
35.00	11.65878	1.48829	1.58996
35.10	10.90074	0.99822	0.42174
35.20	11.36096	0.36847	0.68975
35.30	11.12005	0.09494	0.00370
35.40	11.57487	0.15746	-0.68907
35.50	11.42244	0.15193	-1.27279
35.60	11.40125	0.79373	-1.09484
35.70	11.88058	0.68855	-0.54102
35.80	11.47560	-0.17402	-0.58239
35.90	11.67539	0.04512	-1.05110
36.00	10.67770	0.42578	-1.31119
36.10	11.08516	0.13369	-1.10276
36.20	11.01871	-0.34432	-1.33019
36.30	11.19607	-0.39154	-1.71220
36.40	11.28620	-1.00469	-1.32781
36.50	10.63699	-1.44656	-1.05011
36.60	10.45548	-1.62500	-1.37413
36.70	9.99609	-2.22024	-1.32465
36.80	10.05715	-2.37817	-1.54376
36.90	9.88768	-2.94117	-0.87058
37.00	9.74189	-2.84153	-0.70491
37.10	10.71549	-2.91415	-1.37413
37.20	10.95599	-2.54782	-0.98875
37.30	11.06107	-2.69500	-0.81793
37.40	10.90698	-1.83926	-0.40068
37.50	11.26045	-2.58429	-0.88622
37.60	11.24632	-2.79497	-0.90067
37.70	11.94496	-3.49050	-0.63088
37.80	11.69118	-3.56995	-0.72193
37.90	12.63529	-3.92977	-0.82387
38.00	11.77965	-4.33321	-0.70174
38.10	11.86563	-3.52013	-1.73536
38.20	12.29137	-2.90601	-0.66651
38.30	12.15887	-3.10594	-0.01847
38.40	11.75680	-2.59048	-0.01649
38.50	12.56634	-3.23619	-0.75875
38.60	11.68287	-3.57223	-1.16471
38.70	11.27374	-3.58754	-0.94580
38.80	11.21559	-3.54423	0.45044
38.90	11.95742	-3.09715	-0.01570
39.00	12.12855	-2.77413	-0.10160
39.10	11.19067	-3.30359	0.64501
39.20	11.03283	-2.11897	0.47360
39.30	11.64964	-2.38924	-0.12654
39.40	12.15555	-2.10986	0.00984
39.50	12.16053	-1.47587	0.32139
39.60	12.26853	-0.59310	-0.69086
39.70	11.71111	0.13141	-0.11348
39.80	12.10031	-0.16881	-0.80962
39.90	11.93541	-1.45047	-0.28232
40.00	12.44173	-1.78716	-0.14277
40.10	13.18689	-1.69957	-0.22234
40.20	12.66561	-0.99557	-1.27496
40.30	12.76405	-1.83763	-1.60631
40.40	11.63926	-3.21926	-0.92422
40.50	11.72191	-3.43156	-0.80586
40.60	10.87333	-3.62987	-0.54300
40.70	11.06689	-2.80962	-1.13067
40.80	11.40665	-2.43971	-0.70214
40.90	10.83346	-1.83177	-0.74410
41.00	11.16990	-1.72790	-1.05466
41.10	10.79275	-1.36483	-1.52753
41.20	11.71402	-1.19778	-1.99862
41.30	11.98442	-1.06330	-1.13304
41.40	11.94870	-1.42409	-0.69877
41.50	11.23054	-0.75852	-0.75420
41.60	10.87665	-0.74517	-1.02042
41.70	10.94394	-1.11768	-1.92974
41.80	11.12089	0.26036	-1.01131
41.90	11.22929	1.07181	-0.37238
42.00	12.22824	1.29389	-0.04737
42.10	12.87038	1.63482	0.21450
42.20	13.73143	0.90347	-0.31874
42.30	13.25625	0.73121	0.13750
42.40	13.26082	-0.02163	0.09534
42.50	11.88556	-0.40098	-0.06399
42.60	11.90882	-0.35702	0.08169
42.70	11.72025	0.20305	0.94429
42.80	11.72690	0.65599	0.73250
42.90	12.00934	1.18774	0.20282
43.00	12.06043	0.13988	0.03121
43.10	12.98876	-0.02489	0.59810
43.20	12.70258	-0.31665	0.02330
43.30	13.22967	-0.67613	0.32040
43.40	13.00787	-0.49867	1.09611
43.50	12.37195	-0.40424	2.32747
43.60	12.23405	-0.84220	1.17667
43.70	12.52605	-0.25999	1.13352
43.80	12.75450	-0.48011	1.17528
43.90	12.44049	-1.02357	-0.25520
44.00	13.13995	-0.94640	0.12444
44.10	13.15158	-1.00860	0.51477
44.20	13.31233	-0.05094	0.40650
44.30	13.07973	-0.41759	0.56940
44.40	13.28408	-1.17304	0.17788
44.50	13.09177	-0.59115	0.78931
44.60	12.95512	-0.08448	0.52902
44.70	12.96301	-0.05256	-0.34981
44.80	13.05647	-0.43550	-0.32943
44.90	12.69926	0.16691	0.04349
45.00	12.53851	-1.17922	0.56742
45.10	12.28763	-1.06102	1.07117
45.20	12.72002	-0.71651	0.83701
45.30	13.32645	-1.24044	0.63333
45.40	13.28034	-1.98319	0.64382
45.50	13.02282	-1.40683	0.26636
45.60	12.93103	-0.69828	0.62482
45.70	13.25916	-0.82429	0.97556
45.80	12.24319	-0.57617	0.74517
45.90	11.70945	-0.88356	0.54406
46.00	11.73147	-1.10205	0.74734
46.10	11.62139	-1.66147	0.59533
46.20	11.76885	-1.84415	1.15292
46.30	11.75431	-1.72399	1.42250
46.40	11.30572	-1.49378	1.73366
46.50	11.80540	-1.63282	1.14915
46.60	12.17175	-0.31306	1.06127
46.70	12.73788	-0.19323	0.87521
46.80	12.89198	0.51500	0.78357
46.90	12.75118	0.98227	0.04942
47.00	12.62117	0.98259	0.03834
47.10	13.14161	0.42219	-0.31933
47.20	12.59292	-0.23198	0.55040
47.30	11.73147	-0.57617	0.67490
47.40	12.01557	-0.44820	0.15057
47.50	12.16718	-1.26779	0.37424
47.60	11.29866	-1.05321	-0.44601
47.70	11.30406	-0.52309	-0.74074
47.80	10.90864	0.32516	0.00212
47.90	10.39151	-0.48434	0.07555
48.00	10.36784	-0.71358	-0.44106
48.10	11.12919	-0.29450	-0.58516
48.20	10.74291	-0.75982	-0.00936
48.30	9.93005	-1.21081	-0.03707
48.40	11.00251	-1.18183	0.27586
48.50	10.55475	-0.79108	1.33323
48.60	10.47832	-0.27497	0.98190
48.70	11.10884	-0.01219	0.75051
48.80	11.16284	-0.64292	0.43065
48.90	10.37490	-1.50126	0.10326
49.00	9.65716	-1.07307	0.13592
49.10	10.19422	-1.27137	0.35919
49.20	10.15143	-1.75558	-0.43750
49.30	10.14230	-1.80572	-0.02282
49.40	9.88103	-1.66668	-0.20393
49.50	10.36327	-2.49865	-0.22234
49.60	10.18674	-2.52470	0.00984
49.70	9.73192	-2.64388	-0.23145
49.80	10.23949	-2.71617	1.03039
49.90	10.05715	-2.59959	1.00387
50.00	10.71508	-3.11929	0.76041
50.10	10.57386	-2.94996	0.88768
50.20	11.07437	-3.33127	1.08027
50.30	10.21166	-3.12352	1.58620
50.40	9.82621	-3.32541	2.25364
50.50	10.37573	-2.54391	2.69761
50.60	9.20691	-2.99816	2.75184
50.70	9.00670	-3.08835	2.82646
50.80	8.74004	-2.46869	2.27679
50.90	9.53836	-2.98904	1.41261
51.00	9.20026	-3.31499	2.27778
51.10	8.79445	-3.15674	1.68615
51.20	8.04099	-2.44362	0.98051
51.30	9.48935	-1.77577	0.80831
51.40	9.26921	-1.80833	0.43381
51.50	8.84845	-0.98320	0.34890
51.60	9.20732	-0.50551	-0.18335
51.70	9.37969	-0.42931	-0.05647
51.80	9.36848	-0.35898	-0.58021
51.90	9.27212	-0.65529	-0.90997
52.00	9.41542	0.37628	-0.41078
52.10	8.85177	-0.35539	-1.24864
52.20	9.04035	-0.52863	-1.33751
52.30	9.59527	0.88588	-1.46162
52.40	9.13422	0.36749	-1.85195
52.50	9.96037	-0.45699	-1.46419
52.60	9.38136	0.00279	-1.62788
52.70	9.07524	0.11025	-0.97331
52.80	9.40835	0.18742	-1.24230
52.90	9.31698	0.07541	-1.26507
53.00	9.40254	-0.05810	-0.52578
53.10	8.89788	0.45541	-1.09761
53.20	8.92944	0.38638	-1.28328
53.30	8.17723	0.97413	-0.18850
53.40	8.58096	0.72275	0.29526
53.50	9.07856	-0.69144	0.99714
53.60	8.35874	-1.37590	0.37622
53.70	7.14796	-1.44102	0.38116
53.80	6.85804	-1.22058	-0.51212
53.90	6.89667	-0.41694	0.48409
54.00	6.88338	-0.04703	0.94152
54.10	6.40655	-0.54979	1.12659
54.20	6.65368	-0.42345	2.01235
54.30	8.15314	1.01874	1.19290
54.40	8.27234	1.17178	0.85858
54.50	8.00028	0.58761	1.36095
54.60	8.06549	1.24960	1.36174
54.70	7.59032	2.40915	1.15430
54.80	8.02105	1.57555	1.69625
54.90	8.59965	1.21737	1.26851
55.00	8.80193	0.29618	1.23466
55.10	8.53942	-0.86434	1.15826
55.20	9.41957	-1.02748	0.84235
55.30	9.01418	-1.49964	0.85522
55.40	8.72883	-1.93011	0.63432
55.50	9.17118	-2.64648	0.56821
55.60	8.63038	-2.77673	0.82949
55.70	8.17806	-2.78813	0.62898
55.80	8.62706	-3.10333	0.73250
55.90	8.78531	-3.78454	1.00070
56.00	8.51616	-3.31466	1.14797
56.10	9.09600	-3.72234	1.16162
56.20	9.03910	-2.71845	0.91025
56.30	8.40235	-2.31532	1.76275
56.40	7.92095	-2.41138	1.36253
56.50	7.68627	-3.08314	1.31621
56.60	7.77599	-2.90438	0.94607
56.70	7.40466	-2.59276	-0.12971
56.80	7.34817	-2.86823	-0.91116
56.90	6.96188	-2.32151	-0.88760
57.00	6.97185	-2.48269	-1.26507
57.10	7.22979	-3.70281	-0.68096
57.20	7.71908	-3.21600	-0.91076
57.30	7.54754	-2.48595	-0.07943
57.40	7.35274	-2.02031	0.52605
57.50	7.16375	-1.84480	0.39898
57.60	7.14007	-2.14079	1.00526
57.70	6.97019	-2.18377	1.49970
57.80	7.08524	-1.95063	1.43042
57.90	7.57371	-1.82461	0.99892
58.00	7.28296	-0.97994	1.08502
58.10	7.23311	-0.98092	0.58484
58.20	7.97661	-0.87476	-0.08517
58.30	7.91264	-1.34757	-0.31992
58.40	8.12198	-0.31762	-0.21522
58.50	8.26985	-0.81550	-0.52716
58.60	8.36289	-0.17011	-0.51113
58.70	8.33631	-0.27464	-0.18810
58.80	8.61294	-0.19551	0.74913
58.90	8.25739	0.32939	0.53080
59.00	7.61981	0.45118	0.86789
59.10	7.53799	0.66316	0.42570
59.20	8.60006	1.42609	0.48112
59.30	8.57431	1.86764	1.51652
59.40	9.15540	1.52997	1.09334
59.50	8.52115	0.90868	1.11927
59.60	8.88832	0.20012	0.89778
59.70	8.35002	0.95133	1.15054
59.80	7.98201	1.99300	0.86650
59.90	9.18863	2.09688	-0.34783
60.00	8.54731	1.85917	-0.22472
60.10	8.40152	2.25871	0.12721
60.20	7.77183	2.35412	-0.58219
60.30	8.04514	2.22745	-1.40620
60.40	8.63952	1.35218	-2.06493
60.50	8.40651	0.58208	-1.47409
60.60	8.98012	0.59966	-0.73242
60.70	8.61336	-0.17923	-0.78586
60.80	8.99632	-0.40880	-0.34071
60.90	8.45843	0.90477	0.38176
61.00	8.65448	2.09297	1.24832
61.10	8.75375	1.85396	0.92925
61.20	8.95146	1.99561	1.44487
61.30	9.22393	1.93179	1.16816
61.40	9.05281	1.80707	-0.20948
61.50	8.97721	1.95751	0.04546
61.60	9.62310	1.52020	0.17571
61.70	9.30451	1.37236	0.03616
61.80	9.23058	1.03306	0.07931
61.90	9.59277	1.25937	-0.15643
62.00	9.58322	0.58729	0.16799
62.10	9.83784	1.29128	0.12068
62.20	9.57533	0.91845	0.52170
62.30	9.98155	1.05097	0.73408
62.40	9.71448	0.88784	-0.05707
62.50	9.45280	0.50946	-0.14614
62.60	8.93734	0.40363	0.67292
62.70	8.68314	1.05651	0.72953
62.80	8.90120	1.23691	-0.04559
62.90	9.32154	1.55927	1.48683
63.00	9.06277	1.16592	1.28415
63.10	9.31365	1.45117	1.05454
63.20	10.05756	0.78396	1.06563
63.30	10.15808	0.53844	1.03336
63.40	10.30013	1.49838	0.01281
63.50	9.96868	2.15972	0.53437
63.60	9.18032	1.20402	0.60523
63.70	8.94897	1.49057	1.01852
63.80	9.53878	1.70711	1.75523
63.90	10.89493	1.13140	1.33700
64.00	11.69076	1.56416	1.45813
64.10	11.67498	2.38831	1.15945
64.20	11.31195	3.13529	1.29008
64.30	10.61622	3.51953	1.39222
64.40	10.58216	2.44953	0.49399
64.50	10.13980	2.22257	1.33165
64.60	9.79713	1.58890	2.02700
64.70	10.20917	1.90834	1.12481
64.80	10.69182	1.92365	1.10996
64.90	10.41768	2.10241	1.60995
65.00	10.58673	2.60420	1.32057
65.10	10.33752	1.94546	1.71545
65.20	10.94685	1.77125	0.89441
65.30	10.12319	2.29258	0.62205
65.40	10.14977	2.51563	1.79403
65.50	10.65817	2.45441	0.76259
65.60	10.96513	2.96987	0.66164
65.70	11.17862	2.14116	-0.05944
65.80	9.90720	1.19620	0.35227
65.90	9.72818	1.58956	0.39482
66.00	10.09245	1.92886	0.94845
66.10	10.28933	0.95492	0.86432
66.20	10.20128	0.43652	0.69271
66.30	10.08082	-0.31990	0.36513
66.40	10.75703	-0.47718	0.15473
66.50	11.42950	0.18644	0.14127
66.60	11.90052	0.20565	0.46766
66.70	11.05567	0.52705	1.04939
66.80	11.15951	0.65827	1.14777
66.90	10.93439	1.26784	0.04467
67.00	9.88976	1.26230	-0.08953
67.10	9.90928	0.99269	0.30258
67.20	10.02184	1.93048	0.08169
67.30	10.27189	1.47689	-0.40187
67.40	9.80752	1.72762	-0.76350
67.50	9.94168	2.33751	-1.87629
67.60	9.67086	2.29909	-2.12292
67.70	9.86816	1.62993	-1.84997
67.80	9.96120	1.69962	-1.34642
67.90	8.83640	1.53322	-2.08393
68.00	9.07939	1.31408	-1.83611
68.10	9.11303	0.90770	-1.01982
68.20	9.22560	0.28804	0.11395
68.30	9.08313	0.76247	0.66619
68.40	9.67252	2.07897	0.81682
68.50	9.49267	1.91681	0.25805
68.60	9.16952	1.84061	-0.04024
68.70	9.40586	1.49806	-0.41276
68.80	9.82372	1.85950	-0.42147
68.90	9.75518	2.97183	0.33425
69.00	9.69288	1.94872	0.08980
69.10	9.49932	1.27793	-0.17761
69.20	9.47357	2.28704	-0.24906
69.30	8.83599	2.83865	-0.26747
69.40	8.79653	2.72045	0.15136
69.50	9.09850	2.87642	0.33980
69.60	9.58156	2.30495	0.26953
69.70	9.25135	2.71393	0.03517
69.80	9.93420	2.45637	-0.18236
69.90	10.06629	2.88652	0.44549
70.00	10.06172	3.59475	0.94231
70.10	10.82016	3.79598	1.02030
70.20	10.60252	3.46319	0.25053
70.30	10.63990	3.59051	0.55456
70.40	10.61664	3.74681	1.08205
70.50	10.40065	3.32480	0.99417
70.60	11.38173	3.09654	0.68262
70.70	12.60954	3.53288	0.39027
70.80	12.92438	3.37169	0.22618
70.90	13.11420	2.41827	0.38077
71.00	12.57631	1.70385	0.59731
71.10	11.49928	1.44303	0.80395
71.20	11.97279	0.93896	0.57613
71.30	11.95119	1.25970	0.30694
71.40	11.66999	1.38344	0.36256
71.50	11.29658	0.62701	0.46687
71.60	11.63095	1.05781	0.31406
71.70	11.88556	1.71590	1.38688
71.80	11.85981	0.31669	0.59493
71.90	12.40933	0.16300	0.53555
72.00	12.72085	1.93276	1.13767
72.10	12.52563	2.46809	1.07057
72.20	12.12232	1.79698	1.10323
72.30	12.33623	1.30757	1.39044
72.40	12.14641	0.92952	1.29345
72.50	11.01455	0.23919	1.53869
72.60	10.58050	-0.21082	1.40667
72.70	10.93190	0.58891	0.87105
72.80	10.73294	0.98194	0.49379
72.90	10.22828	0.83997	0.62957
73.00	10.09827	1.71329	1.03396
73.10	10.17303	1.90606	1.29879
73.20	11.27914	1.99984	2.09687
73.30	11.10967	2.13726	2.13606
73.40	10.67562	1.83182	1.76295
73.50	11.04571	2.10372	1.89795
73.60	11.64424	1.96402	1.34551
73.70	11.15910	1.63286	1.01258
73.80	11.06647	1.77874	1.31008
73.90	11.22348	2.25383	1.05157
74.00	11.19108	1.45117	0.35128
74.10	12.06915	1.01841	-0.02084
74.20	12.50736	0.85755	0.15393
74.30	12.47911	1.94709	0.84176
74.40	11.68868	2.26197	0.59335
74.50	11.52379	1.54234	0.79247
74.60	11.06647	1.14736	1.38727
74.70	11.28786	1.36715	1.76850
74.80	10.50864	1.86341	1.81481
74.90	10.17013	2.16591	2.77282
75.00	10.10865	2.50456	2.31420
75.10	10.43388	2.96564	1.45972
75.20	11.01663	3.05584	1.44606
75.30	11.29409	3.34043	1.15668
75.40	11.94579	3.96889	1.25386
75.50	12.07788	4.27758	0.99615
75.60	12.33872	5.19161	0.50764
75.70	12.05503	4.67061	0.69984
75.80	12.11484	5.86174	-0.08596
75.90	12.31588	5.99850	-0.02084
76.00	12.41847	5.68493	-0.56695
76.10	11.81911	6.58853	0.11870
76.20	11.81495	7.43971	0.69390
76.30	11.99937	5.57063	0.68895
76.40	11.80748	4.59962	1.12322
76.50	11.26128	4.91352	0.39225
76.60	12.19708	4.24632	0.40630
76.70	12.03800	4.04346	-0.64414
76.80	11.86397	3.67387	-1.94577
76.90	12.84463	3.45961	-2.48752
77.00	12.16178	4.17305	-2.70168
77.10	12.11235	4.67940	-2.24643
77.20	12.60788	4.39187	-1.28902
77.30	12.60040	4.09002	-1.51328
77.40	12.52439	4.30917	-1.75555
77.50	12.96592	4.84091	-1.32643
77.60	12.28680	5.14830	-1.22449
77.70	12.09947	5.43778	-0.83436
77.80	12.64734	4.80574	-0.98281
77.90	11.93665	4.31763	-0.66473
78.00	12.16801	4.31405	-0.75835
78.10	12.39230	4.00666	0.13157
78.20	12.70216	3.90181	-0.01669
78.30	12.54682	4.05062	-0.21185
78.40	11.69990	4.13496	-0.13505
78.50	11.31777	4.43420	0.22836
78.60	11.06440	4.90994	0.16522
78.70	11.79169	4.58888	-0.12377
78.80	12.21993	4.95488	-0.25480
78.90	12.44256	4.97897	-0.83852
79.00	11.74476	4.38438	-0.42404
79.10	12.06915	4.45798	0.41323
79.20	12.03011	3.63317	0.24637
79.30	12.63529	3.80380	0.04250
79.40	11.88930	3.61135	0.03339
79.50	11.40665	2.57294	0.07654
79.60	11.64133	2.85623	0.16284
79.70	11.83115	2.56480	0.52783
79.80	11.81454	3.05063	0.38473
79.90	10.73834	2.69375	-0.21462
80.00	9.79713	3.24731	-0.44660
80.10	9.70949	3.37072	-1.26843
80.20	10.13939	3.29973	-0.65523
80.30	10.33793	2.47525	-0.48085
80.40	10.26815	2.54494	-0.82981
80.50	10.80812	2.94513	0.19352
80.60	11.57695	2.54656	0.42273
80.70	11.37176	1.83149	0.16502
80.80	11.85150	1.29454	-0.00461
80.90	12.43592	1.81814	0.38789
81.00	12.42761	2.20010	0.34415
81.10	12.26354	2.18577	0.21668
81.20	12.56094	2.86763	0.66322
81.30	11.96033	2.57489	0.69331
81.40	12.44422	2.69830	0.24023
81.50	12.00311	2.09720	0.72617
81.60	12.30799	2.77450	0.60780
81.70	13.44566	2.43715	-0.56121
81.80	12.83051	2.50195	-0.37990
81.90	12.89115	2.72045	0.38809
82.00	13.58231	3.06398	0.16482
82.10	13.51668	2.14214	-0.72549
82.20	12.96675	1.44661	-0.42325
82.30	13.00662	1.33068	-0.94956
82.40	12.23862	1.04707	-0.44482
82.50	12.46707	0.82890	-0.13010
82.60	12.02222	-0.00763	0.56227
82.70	11.35432	0.11676	-0.16751
82.80	11.61890	0.06466	-0.52043
82.90	11.29118	0.02884	-0.93372
83.00	11.72939	-0.33130	-0.87375
83.10	11.68785	-0.51007	-0.49252
83.20	12.12980	-1.33682	-0.49312
83.30	11.91838	-0.95552	-0.56715
83.40	11.69574	-0.59082	0.10584
83.50	11.79875	0.70777	0.39284
83.60	11.98317	0.15616	0.92786
83.70	11.69325	-0.35898	0.14067
83.80	12.11983	0.09690	-0.76370
83.90	12.11817	-0.18347	-0.62969
84.00	11.79958	-0.15155	-0.24233
84.10	11.50634	-0.30427	0.36533
84.20	12.00228	0.37530	0.08525
84.30	12.79022	-0.09522	0.37325
84.40	11.93292	-0.24859	0.42491
84.50	12.15223	-1.55988	0.71211
84.60	11.75597	-1.93500	1.01792
84.70	11.15245	-1.05516	0.93519
84.80	10.88288	-0.28864	0.92628
84.90	11.15079	-0.10987	2.61051
85.00	11.28786	0.81620	2.86862
85.10	10.95142	1.18643	2.46068
85.20	10.53938	1.69343	2.26789
85.30	11.54995	1.06856	2.07767
85.40	11.22680	0.89240	1.44586
85.50	10.81227	0.30725	0.63413
85.60	11.26668	0.41177	1.02485
85.70	10.84841	-0.23361	0.47221
85.80	10.58715	-0.17077	-0.14653
85.90	11.71111	-1.22546	-0.14594
86.00	12.40975	-1.13233	-0.70827
86.10	11.80000	-1.12028	-0.37198
86.20	11.10635	-0.80345	1.37460
86.30	10.26607	0.08094	1.11471
86.40	9.54999	-0.32641	1.68437
86.50	9.08354	-0.39252	1.83936
86.60	9.51344	-0.92784	1.52602
86.70	10.01520	-0.50876	1.42567
86.80	10.44219	-0.38893	0.71112
86.90	11.31860	-0.24501	0.88847
87.00	10.75121	-0.22873	1.11194
87.10	11.11756	-0.80899	1.32215
87.20	11.08350	-0.91058	1.60797
87.30	10.68600	0.36098	1.43181
87.40	10.00440	0.63678	1.97969
87.50	10.09287	-0.12323	2.42366
87.60	10.97426	-0.03954	1.53731
87.70	11.35847	-0.84578	0.68836
87.80	10.95599	-0.75559	0.25072
87.90	10.91279	-0.01512	0.60424
88.00	9.95206	-0.41726	0.02468
88.10	9.37222	-0.35833	-1.56811
88.20	9.55124	-1.00013	-0.96460
88.30	9.42538	-2.12907	-0.40721
88.40	9.65882	-2.26290	-0.31478
88.50	9.80046	-2.74905	-0.34645
88.60	9.88519	-2.48042	-0.22294
88.70	10.52609	-1.73962	-0.23541
88.80	9.46027	-2.30262	-0.26272
88.90	9.63514	-1.69273	-0.97093
89.00	10.42931	-1.70087	-0.32764
89.10	10.38570	-2.38240	0.60503
89.20	9.83576	-1.77967	0.05655
89.30	9.48229	-2.24759	-1.00359
89.40	9.35560	-0.15123	-0.50143